Version 4
SHEET 1 880 680
WIRE 96 128 16 128
WIRE 128 128 112 128
WIRE 112 144 112 128
WIRE 112 144 80 144
WIRE 304 144 192 144
WIRE 96 160 96 128
WIRE 128 160 96 160
WIRE 16 176 16 128
WIRE 80 224 80 144
WIRE 192 224 80 224
FLAG 192 304 0
FLAG 304 144 Vo
IOPIN 304 144 Out
FLAG 16 256 0
SYMBOL Opamps\\opamp 160 80 R0
SYMATTR InstName U1
SYMBOL res 176 128 R0
SYMATTR InstName R1
SYMATTR Value 5.9k
SYMBOL res 176 208 R0
SYMATTR InstName R2
SYMATTR Value 2.5k
SYMBOL voltage 16 160 R0
WINDOW 3 -224 53 Left 2
WINDOW 123 0 0 Left 0
WINDOW 39 0 0 Left 0
SYMATTR InstName Vin
SYMATTR Value SINE(1.5 1.5 60)
TEXT -210 328 Left 2 !.tran 1
TEXT -208 384 Left 2 !.lib opamp.sub
