Version 4
SHEET 1 880 680
WIRE 304 0 272 0
WIRE 448 0 384 0
WIRE 512 0 448 0
WIRE 624 0 592 0
WIRE 272 32 272 0
WIRE 688 48 512 48
WIRE 512 80 512 48
WIRE 448 96 448 0
WIRE 480 96 448 96
WIRE 624 112 624 0
WIRE 624 112 544 112
WIRE 656 112 624 112
WIRE 480 128 448 128
WIRE 336 160 304 160
WIRE 448 160 448 128
WIRE 448 160 416 160
WIRE 448 192 448 160
FLAG 512 144 0
FLAG 768 48 0
FLAG 656 112 Vo
IOPIN 656 112 Out
FLAG 272 112 0
FLAG 448 272 0
FLAG 304 240 0
SYMBOL res 608 -16 R90
WINDOW 0 0 56 VBottom 2
WINDOW 3 32 56 VTop 2
SYMATTR InstName R1
SYMATTR Value 10k
SYMBOL OpAmps\\UniversalOpamp2 512 112 R0
SYMATTR InstName U1
SYMBOL voltage 672 48 R270
WINDOW 0 32 56 VTop 2
WINDOW 3 -32 56 VBottom 2
WINDOW 123 0 0 Left 0
WINDOW 39 0 0 Left 0
SYMATTR InstName V1
SYMATTR Value 5
SYMBOL res 400 -16 R90
WINDOW 0 0 56 VBottom 2
WINDOW 3 32 56 VTop 2
SYMATTR InstName R2
SYMATTR Value 9700
SYMBOL voltage 272 16 R0
WINDOW 123 0 0 Left 0
WINDOW 39 0 0 Left 0
SYMATTR InstName V2
SYMATTR Value 0.7
SYMBOL res 432 176 R0
SYMATTR InstName R4
SYMATTR Value 10k
SYMBOL res 432 144 R90
WINDOW 0 0 56 VBottom 2
WINDOW 3 32 56 VTop 2
SYMATTR InstName R3
SYMATTR Value 1940
SYMBOL voltage 304 144 R0
WINDOW 123 0 0 Left 0
WINDOW 39 0 0 Left 0
SYMATTR InstName Vi
SYMATTR Value SINE(1.36 0.970 60)
TEXT -208 328 Left 2 !;tran 1
TEXT 280 328 Left 2 !.dc Vi 0.39 2.33 0.001
